Version 4
SHEET 1 3360 1700
WIRE -1312 -288 -1344 -288
WIRE -1120 -288 -1312 -288
WIRE -848 -288 -1120 -288
WIRE -592 -288 -848 -288
WIRE -272 -288 -592 -288
WIRE 0 -288 -272 -288
WIRE 272 -288 0 -288
WIRE -1312 -224 -1312 -288
WIRE -1344 -176 -1344 -288
WIRE -1312 -176 -1344 -176
WIRE -1232 -176 -1264 -176
WIRE -592 -176 -592 -288
WIRE -272 -176 -272 -288
WIRE 0 -176 0 -288
WIRE -1312 -96 -1312 -128
WIRE -1312 -96 -1344 -96
WIRE -1232 -96 -1232 -176
WIRE -1232 -96 -1312 -96
WIRE -1312 -64 -1312 -96
WIRE -1344 -16 -1344 -96
WIRE -1312 -16 -1344 -16
WIRE -1232 -16 -1264 -16
WIRE 272 16 272 -288
WIRE 0 32 0 -96
WIRE 176 32 0 32
WIRE -1312 80 -1312 32
WIRE -1232 80 -1232 -16
WIRE -1232 80 -1312 80
WIRE 544 80 384 80
WIRE 656 80 544 80
WIRE -1120 96 -1120 -288
WIRE -272 128 -272 -96
WIRE 176 128 -272 128
WIRE -1312 144 -1312 80
WIRE -1168 144 -1312 144
WIRE -1088 144 -1120 144
WIRE -640 144 -992 144
WIRE -592 144 -592 -96
WIRE -432 144 -592 144
WIRE 272 192 272 144
WIRE -1120 240 -1120 192
WIRE -1088 240 -1088 144
WIRE -1088 240 -1120 240
WIRE -1312 272 -1312 144
WIRE -848 272 -848 -288
WIRE -992 288 -992 144
WIRE -944 288 -992 288
WIRE -592 288 -592 144
WIRE -272 288 -272 128
WIRE 0 288 0 32
WIRE -1312 320 -1344 320
WIRE -1120 320 -1120 240
WIRE -1120 320 -1264 320
WIRE -688 336 -736 336
WIRE -640 336 -640 144
WIRE -528 336 -640 336
WIRE -208 336 -528 336
WIRE 64 336 -208 336
WIRE 224 336 64 336
WIRE 544 336 544 80
WIRE 544 336 224 336
WIRE -944 384 -992 384
WIRE -1344 400 -1344 320
WIRE -1312 400 -1312 368
WIRE -1312 400 -1344 400
WIRE -1312 432 -1312 400
WIRE -848 432 -848 400
WIRE -272 464 -272 384
WIRE -992 496 -992 384
WIRE -432 496 -432 144
WIRE -432 496 -992 496
WIRE -688 640 -688 336
WIRE -592 640 -592 384
WIRE -592 640 -688 640
WIRE -512 640 -592 640
WIRE -272 640 -272 544
WIRE -272 640 -432 640
WIRE 0 640 0 384
WIRE 0 640 -272 640
WIRE -1120 704 -1120 320
WIRE 224 704 224 336
WIRE 224 704 -1120 704
WIRE -272 720 -272 640
WIRE -272 896 -272 800
FLAG -160 -592 0
FLAG -160 -672 Vin
IOPIN -160 -672 In
FLAG 656 80 VBG
IOPIN 656 80 Out
FLAG 272 192 0
FLAG -1312 432 0
FLAG 880 -176 0
FLAG 880 -256 Vin_PULSE
IOPIN 880 -256 In
FLAG 1424 -192 0
FLAG 1424 -272 Vin_PSRR
IOPIN 1424 -272 In
FLAG -272 896 0
FLAG -848 432 0
FLAG -1312 -288 Vin
IOPIN -1312 -288 In
SYMBOL AO_Miller 288 48 R0
WINDOW 0 -57 -75 Bottom 2
SYMATTR InstName X1
SYMBOL voltage -160 -688 R0
WINDOW 123 24 44 Left 2
WINDOW 39 0 0 Left 0
SYMATTR InstName V1
SYMATTR Value 1.8
SYMBOL res -288 -192 R0
SYMATTR InstName R1
SYMATTR Value 100k
SYMATTR SpiceLine tol=0
SYMBOL res -16 -192 R0
SYMATTR InstName R2
SYMATTR Value 100k
SYMATTR SpiceLine tol=0
SYMBOL res -288 448 R0
SYMATTR InstName R3
SYMATTR Value 11.3k
SYMATTR SpiceLine tol=0
SYMBOL npn -208 288 M0
SYMATTR InstName Q1
SYMATTR SpiceLine AREA=8
SYMBOL npn 64 288 M0
SYMATTR InstName Q2
SYMATTR SpiceLine AREA=1
SYMBOL pmosb -1264 -224 M0
WINDOW 0 63 69 Left 2
WINDOW 3 63 92 Left 2
SYMATTR InstName M4
SYMATTR Value2 l=100u w=0.88u
SYMBOL pmosb -1264 -64 M0
WINDOW 0 63 69 Left 2
WINDOW 3 63 92 Left 2
SYMATTR InstName M3
SYMATTR Value2 l=100u w=0.88u
SYMBOL nmosb -1168 96 R0
WINDOW 0 63 4 Left 2
WINDOW 3 63 27 Left 2
SYMATTR InstName M2
SYMATTR Value2 l=10u w=3.84u
SYMBOL nmosb -1264 272 M0
WINDOW 0 63 4 Left 2
WINDOW 3 63 27 Left 2
SYMATTR InstName M1
SYMATTR Value2 l=5u w=0.5u
SYMBOL voltage 880 -272 R0
WINDOW 123 0 0 Left 0
WINDOW 39 0 0 Left 0
SYMATTR InstName V2
SYMATTR Value PULSE(0 1.8 20u 1n 1n 60u)
SYMBOL voltage 1424 -288 R0
WINDOW 123 24 44 Left 2
WINDOW 39 0 0 Left 0
SYMATTR Value2 AC 1
SYMATTR InstName V3
SYMATTR Value SINE(1.8 200m 100)
SYMBOL res -288 704 R0
SYMATTR InstName R4
SYMATTR Value 53.7k
SYMBOL res -608 -192 R0
SYMATTR InstName RC2
SYMATTR Value 83k
SYMBOL npn -528 288 M0
WINDOW 0 -44 -17 Left 2
WINDOW 3 -50 15 Left 2
SYMATTR InstName QC
SYMATTR SpiceLine AREA=1
SYMBOL res -416 624 R90
WINDOW 0 0 56 VBottom 2
WINDOW 3 32 56 VTop 2
SYMATTR InstName RC1
SYMATTR Value 39.3k
SYMBOL AO_Miller -832 304 R0
WINDOW 0 -57 -75 Bottom 2
SYMATTR InstName X2
TEXT -240 392 Left 2 ;n*A
TEXT 40 384 Left 2 ;A
TEXT -648 -712 Left 2 ;.op
TEXT -648 -680 Left 2 !.dc temp -40 150 .1
TEXT 32 -656 Left 2 !.lib tsmc180nmcmos.lib
TEXT -648 -736 Left 2 ;.tran 0 100u
TEXT 528 -720 Left 2 ;;For start-up circuit test -> .tran 0 100u\n(plot VBG -> 1.2V when Vin_PULSE max ampl)\n(plot Id(M2) -> pA/nA when VBG is at nominal value 1.2V)
TEXT -648 -648 Left 2 !.step param V1 list 1.6 1.8 2
TEXT -648 -616 Left 2 ;.ac dec 10 1 1G
TEXT 1376 -560 Left 2 ;;For PSRR test\n(plot VBG when .ac dec 10 1 1G with Vin AC = 1 -> -82dB PSSR)\n(plot VBG (26uV difference cursor2-cursor1) and Vsupply_PSRR (400mV difference cursor2-cursor1) when .tran 0 100m)
TEXT 808 24 Left 2 ;;Quiscent current I(V1) (15uA through OTA, 12uA through BG) across temperature\n(plot -I(V1) when .dc temp -40 150 .1 and .step param V1 list 1.6 1.8 2)
TEXT -648 -584 Left 2 ;.dc V1 1.6 2 .1
TEXT 808 88 Left 2 ;;Quiscent current I(V1) variation with resistors tolerance (+/-1%) and temperature\n(plot I(V1) when .dc temp -40 150 .1 and .step param V1 list 1.6 1.8 2 and tolerance is +/-1%)
TEXT 808 176 Left 2 ;;Output voltage VBG accuracy with PVT variations\nvariation with VDD supply voltage 1.6-2V\n(plot VBG when .dc V1 1.6 2 .1)\nvariation with temperature\n(plot VBG when .dc temp -40 150 .1 and .step param V1 list 1.6 1.8 2)\nvariation with process (resistor tolerance)-each resistor value should be {mc(value, tol)}\n \nTotal PVT variation: P+V+T-> approx. accuracy = 2.1%
TEXT 808 472 Left 2 ;.param tol=0.01\n.step param run 1 300 1
TEXT 808 536 Left 2 ;.meas DC Vmax max V(Vbg)\n.meas DC Vmin min V(Vbg)\n.meas DC Vdiff param (Vmax-Vmin)
TEXT 808 440 Left 2 ;;For Monte Carlo analysis for variation with process launch commands below (also launch .dc temp analysis)
TEXT 800 -48 Left 2 ;;"Bow" characteristic\nplot VBG when .dc temp -40 150 .1 and .step param V1 list 1.6 1.8 2
TEXT 1984 -24 Left 2 ;;For stability\nplace a voltage source AC=1 between VBG (+ terminal at VBG) and Vout_AO, where now Vout_AO will be Vmasura\nplot Vmasura/VBG\nPM=45deg min with PVT\nGM=10.5dB min with PVT\nGBW=10-20MHz\nA0=80-85dB
TEXT 2104 432 Left 2 ;;Start-up time\nuse everything from Start-up circuit test\nplot Vsupply_pulse and VBG -> with cursors measure start-up time where VBG is at 90% of nominal value
TEXT 1992 200 Left 2 ;.step param run 1 10 1\n.step temp -40 150 10\n.step param V1 list 1.6 1.8 2\n.param tol=0.01
TEXT 1984 176 Left 2 ;;use these commands with .ac analysis, each resistor value should be {mc(*value*, tol)}
TEXT -528 360 Left 2 ;A
